Get the name of the MODPATH simulation file.
Read the first two records of the simulation file to get mpnamFile and mplistFile ...
Allocate rectangular unstructured grid component.
Allocate time discretization data component ...
Allocate disGrid.
Read grid file.

 ----------------------------------------------------------
 Cell connection data:
 ----------------------------------------------------------
 Format has two lines for each cell, listed by cell number.
 Line 1: Cell connections
 Line 1: Face assignment codes
 ----------------------------------------------------------
        1       2      11
        0   20101   30101

        2       1       3      12
        0   10101   20101   30101

        3       2       4      13
        0   10101   20101   30101

        4       3       5      14
        0   10101   20101   30101

        5       4       6      15
        0   10101   20101   30101

        6       5       7      16
        0   10101   20101   30101

        7       6       8      17
        0   10101   20101   30101

        8       7       9      18
        0   10101   20101   30101

        9       8      10      19
        0   10101   20101   30101

       10       9      20
        0   10101   30101

       11       1      12      21
        0   40101   20101   30101

       12       2      11      13      22
        0   40101   10101   20101   30101

       13       3      12      14      23
        0   40101   10101   20101   30101

       14       4      13      15      24
        0   40101   10101   20101   30101

       15       5      14      16      25
        0   40101   10101   20101   30101

       16       6      15      17      26
        0   40101   10101   20101   30101

       17       7      16      18      27
        0   40101   10101   20101   30101

       18       8      17      19      28
        0   40101   10101   20101   30101

       19       9      18      20      29
        0   40101   10101   20101   30101

       20      10      19      30
        0   40101   10101   30101

       21      11      22      31
        0   40101   20101   30101

       22      12      21      23      32
        0   40101   10101   20101   30101

       23      13      22      24      33
        0   40101   10101   20101   30101

       24      14      23      25      34
        0   40101   10101   20101   30101

       25      15      24      26      35
        0   40101   10101   20101   30101

       26      16      25      27      36
        0   40101   10101   20101   30101

       27      17      26      28      37
        0   40101   10101   20101   30101

       28      18      27      29      38
        0   40101   10101   20101   30101

       29      19      28      30      39
        0   40101   10101   20101   30101

       30      20      29      40
        0   40101   10101   30101

       31      21      32      41
        0   40101   20101   30101

       32      22      31      33      42
        0   40101   10101   20101   30101

       33      23      32      34      43
        0   40101   10101   20101   30101

       34      24      33      35      44
        0   40101   10101   20101   30101

       35      25      34      36      45
        0   40101   10101   20101   30101

       36      26      35      37      46
        0   40101   10101   20101   30101

       37      27      36      38      47
        0   40101   10101   20101   30101

       38      28      37      39      48
        0   40101   10101   20101   30101

       39      29      38      40      49
        0   40101   10101   20101   30101

       40      30      39      50
        0   40101   10101   30101

       41      31      42      51
        0   40101   20101   30101

       42      32      41      43      52
        0   40101   10101   20101   30101

       43      33      42      44      53
        0   40101   10101   20101   30101

       44      34      43      45      54
        0   40101   10101   20101   30101

       45      35      44      46      55
        0   40101   10101   20101   30101

       46      36      45      47      56
        0   40101   10101   20101   30101

       47      37      46      48      57
        0   40101   10101   20101   30101

       48      38      47      49      58
        0   40101   10101   20101   30101

       49      39      48      50      59
        0   40101   10101   20101   30101

       50      40      49      60
        0   40101   10101   30101

       51      41      52      61
        0   40101   20101   30101

       52      42      51      53      62
        0   40101   10101   20101   30101

       53      43      52      54      63
        0   40101   10101   20101   30101

       54      44      53      55      64
        0   40101   10101   20101   30101

       55      45      54      56      65
        0   40101   10101   20101   30101

       56      46      55      57      66
        0   40101   10101   20101   30101

       57      47      56      58      67
        0   40101   10101   20101   30101

       58      48      57      59      68
        0   40101   10101   20101   30101

       59      49      58      60      69
        0   40101   10101   20101   30101

       60      50      59      70
        0   40101   10101   30101

       61      51      62      71
        0   40101   20101   30101

       62      52      61      63      72
        0   40101   10101   20101   30101

       63      53      62      64      73
        0   40101   10101   20101   30101

       64      54      63      65      74
        0   40101   10101   20101   30101

       65      55      64      66      75
        0   40101   10101   20101   30101

       66      56      65      67      76
        0   40101   10101   20101   30101

       67      57      66      68      77
        0   40101   10101   20101   30101

       68      58      67      69      78
        0   40101   10101   20101   30101

       69      59      68      70      79
        0   40101   10101   20101   30101

       70      60      69      80
        0   40101   10101   30101

       71      61      72      81
        0   40101   20101   30101

       72      62      71      73      82
        0   40101   10101   20101   30101

       73      63      72      74      83
        0   40101   10101   20101   30101

       74      64      73      75      84
        0   40101   10101   20101   30101

       75      65      74      76      85
        0   40101   10101   20101   30101

       76      66      75      77      86
        0   40101   10101   20101   30101

       77      67      76      78      87
        0   40101   10101   20101   30101

       78      68      77      79      88
        0   40101   10101   20101   30101

       79      69      78      80      89
        0   40101   10101   20101   30101

       80      70      79      90
        0   40101   10101   30101

       81      71      82      91
        0   40101   20101   30101

       82      72      81      83      92
        0   40101   10101   20101   30101

       83      73      82      84      93
        0   40101   10101   20101   30101

       84      74      83      85      94
        0   40101   10101   20101   30101

       85      75      84      86      95
        0   40101   10101   20101   30101

       86      76      85      87      96
        0   40101   10101   20101   30101

       87      77      86      88      97
        0   40101   10101   20101   30101

       88      78      87      89      98
        0   40101   10101   20101   30101

       89      79      88      90      99
        0   40101   10101   20101   30101

       90      80      89     100
        0   40101   10101   30101

       91      81      92
        0   40101   20101

       92      82      91      93
        0   40101   10101   20101

       93      83      92      94
        0   40101   10101   20101

       94      84      93      95
        0   40101   10101   20101

       95      85      94      96
        0   40101   10101   20101

       96      86      95      97
        0   40101   10101   20101

       97      87      96      98
        0   40101   10101   20101

       98      88      97      99
        0   40101   10101   20101

       99      89      98     100
        0   40101   10101   20101

      100      90      99
        0   40101   10101

Allocate budget reader component.
Open budget file in budget reader.
Allocate head reader component.
Open head file in head reader component.
Allocate MODPATH basic data component.
Read MODPATH basic data component.
Read the remainder of the MODPATH simulation data component.
Allocate particle tracking engine component.
Compute range of time steps. Prepare for time step loop                                                                             
Begin TIME_STEP_LOOP
Compute TSMAX                                                                                                                       
Begin TRACKING_INTERVAL_LOOP
Exit TRACKING_INTERVAL_LOOP
Exit TIME_STEP_LOOP
Write endpoint file.
Consolidating pathline segments.
Begin memory deallocation.
Memory deallocation complete.
